<configuration>
    <input>
        <net-file value="cross.net.xml"/>
        <route-files value="vehicles.rou.xml"/>
    </input>
    <time>
        <begin value="0"/>
        <end value="86400"/>
    </time>
</configuration>