<additional>
    <laneAreaDetector id="det_-E5_0" lanes="-E5_0" pos="20" length="10" freq="1" file="statistiche/detector_output.xml"/>
    <laneAreaDetector id="det_-E5_1" lanes="-E5_1" pos="20" length="10" freq="1" file="statistiche/detector_output.xml"/>
    <laneAreaDetector id="det_-E6_0" lanes="-E6_0" pos="20" length="10" freq="1" file="statistiche/detector_output.xml"/>
    <laneAreaDetector id="det_-E6_1" lanes="-E6_1" pos="20" length="10" freq="1" file="statistiche/detector_output.xml"/>
    <laneAreaDetector id="det_-E7_0" lanes="-E7_0" pos="20" length="10" freq="1" file="statistiche/detector_output.xml"/>
    <laneAreaDetector id="det_-E7_1" lanes="-E7_1" pos="20" length="10" freq="1" file="statistiche/detector_output.xml"/>
    <laneAreaDetector id="det_-E8_0" lanes="-E8_0" pos="20" length="10" freq="1" file="statistiche/detector_output.xml"/>
    <laneAreaDetector id="det_-E8_1" lanes="-E8_1" pos="20" length="10" freq="1" file="statistiche/detector_output.xml"/>
</additional>