<?xml version="1.0" encoding="UTF-8"?>

<net version="1.20" junctionCornerDetail="5" limitTurnSpeed="5.50" xmlns:xsi="http://www.w3.org/2001/XMLSchema-instance" xsi:noNamespaceSchemaLocation="http://sumo.dlr.de/xsd/net_file.xsd">

    <location netOffset="0.00,0.00" convBoundary="-100.00,0.00,100.00,200.00" origBoundary="-10000000000.00,-10000000000.00,10000000000.00,10000000000.00" projParameter="!"/>

    <edge id=":J4_0" function="internal">
        <lane id=":J4_0_0" index="0" speed="6.51" length="9.03" shape="-6.40,110.40 -6.75,107.95 -7.80,106.20 -9.55,105.15 -12.00,104.80"/>
    </edge>
    <edge id=":J4_1" function="internal">
        <lane id=":J4_1_0" index="0" speed="13.89" length="20.80" shape="-6.40,110.40 -6.40,89.60"/>
        <lane id=":J4_1_1" index="1" speed="13.89" length="20.80" shape="-3.20,110.40 -3.20,89.60"/>
    </edge>
    <edge id=":J4_3" function="internal">
        <lane id=":J4_3_0" index="0" speed="9.26" length="5.01" shape="-3.20,110.40 -2.49,105.44"/>
    </edge>
    <edge id=":J4_16" function="internal">
        <lane id=":J4_16_0" index="0" speed="9.26" length="14.34" shape="-2.49,105.44 -2.45,105.15 0.00,101.40 3.75,99.15 9.00,98.40"/>
    </edge>
    <edge id=":J4_4" function="internal">
        <lane id=":J4_4_0" index="0" speed="6.51" length="9.03" shape="9.00,104.80 6.55,105.15 4.80,106.20 3.75,107.95 3.40,110.40"/>
    </edge>
    <edge id=":J4_5" function="internal">
        <lane id=":J4_5_0" index="0" speed="13.89" length="20.80" shape="9.00,104.80 -12.00,104.80"/>
        <lane id=":J4_5_1" index="1" speed="13.89" length="20.80" shape="9.00,101.60 -12.00,101.60"/>
    </edge>
    <edge id=":J4_7" function="internal">
        <lane id=":J4_7_0" index="0" speed="9.26" length="5.01" shape="9.00,101.60 4.04,100.89"/>
    </edge>
    <edge id=":J4_17" function="internal">
        <lane id=":J4_17_0" index="0" speed="9.26" length="14.34" shape="4.04,100.89 3.75,100.85 0.00,98.60 -3.75,94.85 -4.40,89.60"/>
    </edge>
    <edge id=":J4_8" function="internal">
        <lane id=":J4_8_0" index="0" speed="6.51" length="9.03" shape="3.40,89.60 3.75,92.05 4.80,93.80 6.55,94.85 9.00,95.20"/>
    </edge>
    <edge id=":J4_9" function="internal">
        <lane id=":J4_9_0" index="0" speed="13.89" length="20.80" shape="3.40,89.60 3.40,110.40"/>
        <lane id=":J4_9_1" index="1" speed="13.89" length="20.80" shape="0.20,89.60 0.20,110.40"/>
    </edge>
    <edge id=":J4_11" function="internal">
        <lane id=":J4_11_0" index="0" speed="9.26" length="5.01" shape="0.20,89.60 -0.51,94.56"/>
    </edge>
    <edge id=":J4_18" function="internal">
        <lane id=":J4_18_0" index="0" speed="9.26" length="14.34" shape="-0.51,94.56 -0.55,94.85 -3.20,98.60 -6.95,100.85 -12.00,101.60"/>
    </edge>
    <edge id=":J4_12" function="internal">
        <lane id=":J4_12_0" index="0" speed="6.51" length="9.03" shape="-12.00,95.20 -9.55,94.85 -7.80,93.80 -6.75,92.05 -6.40,89.60"/>
    </edge>
    <edge id=":J4_13" function="internal">
        <lane id=":J4_13_0" index="0" speed="13.89" length="20.80" shape="-12.00,95.20 9.00,95.20"/>
        <lane id=":J4_13_1" index="1" speed="13.89" length="20.80" shape="-12.00,98.40 9.00,98.40"/>
    </edge>
    <edge id=":J4_15" function="internal">
        <lane id=":J4_15_0" index="0" speed="9.26" length="19.35" shape="-12.00,98.40 -6.75,99.15 -3.00,101.40 -0.25,105.15 -0.40,110.40"/>
    </edge>

    <edge id="-E5" from="J3" to="J4" name="East-West Road" priority="2">
        <lane id="-E5_0" index="0" speed="13.89" length="89.60" shape="100.00,106.40 10.40,106.40"/>
        <lane id="-E5_1" index="1" speed="13.89" length="89.60" shape="100.00,103.20 10.40,103.20"/>
    </edge>
    <edge id="median_E5_E6" from="J3" to="J4" name="Median" priority="0">
        <lane id="median_E5_E6_0" index="0" speed="0" length="89.60" width="3.2" shape="100.00,100.00 10.40,100.00" disallow="all"/>
    </edge>
    <edge id="-E6" from="J2" to="J4" name="West-East Road" priority="2">
        <lane id="-E6_0" index="0" speed="13.89" length="89.60" shape="-100.00,93.60 -10.40,93.60"/>
        <lane id="-E6_1" index="1" speed="13.89" length="89.60" shape="-100.00,96.80 -10.40,96.80"/>
    </edge>
    <edge id="median_E6_E5" from="J2" to="J4" name="Median" priority="0">
        <lane id="median_E6_E5_0" index="0" speed="0" length="89.60" width="3.2" shape="-100.00,100.00 -10.40,100.00" disallow="all"/>
    </edge>
    <edge id="-E7" from="J0" to="J4" name="North-South Main Road" priority="3">
        <lane id="-E7_0" index="0" speed="13.89" length="89.60" shape="-6.40,200.00 -6.40,110.40"/>
        <lane id="-E7_1" index="1" speed="13.89" length="89.60" shape="-3.20,200.00 -3.20,110.40"/>
    </edge>
    <edge id="median_E7_E8" from="J0" to="J4" name="Median" priority="0">
        <lane id="median_E7_E8_0" index="0" speed="0" length="89.60" width="3.2" shape="0.00,200.00 0.00,110.40" disallow="all"/>
    </edge>
    <edge id="-E8" from="J1" to="J4" name="South-North Main Road" priority="3">
        <lane id="-E8_0" index="0" speed="13.89" length="89.60" shape="6.40,0.00 6.40,89.60"/>
        <lane id="-E8_1" index="1" speed="13.89" length="89.60" shape="3.20,0.00 3.20,89.60"/>
    </edge>
    <edge id="median_E8_E7" from="J1" to="J4" name="Median" priority="0">
        <lane id="median_E8_E7_0" index="0" speed="0" length="89.60" width="3.2" shape="0.00,0.00 0.00,89.60" disallow="all"/>
    </edge>
    <edge id="E5" from="J4" to="J3" name="West-East Road" priority="2">
        <lane id="E5_0" index="0" speed="13.89" length="89.60" shape="10.40,93.60 100.00,93.60"/>
        <lane id="E5_1" index="1" speed="13.89" length="89.60" shape="10.40,96.80 100.00,96.80"/>
    </edge>
    <edge id="median_E5_E6_out" from="J4" to="J3" name="Median" priority="0">
        <lane id="median_E5_E6_out_0" index="0" speed="0" length="89.60" width="3.2" shape="10.40,100.00 100.00,100.00" disallow="all"/>
    </edge>
    <edge id="E6" from="J4" to="J2" name="East-West Road" priority="2">
        <lane id="E6_0" index="0" speed="13.89" length="89.60" shape="-10.40,106.40 -100.00,106.40"/>
        <lane id="E6_1" index="1" speed="13.89" length="89.60" shape="-10.40,103.20 -100.00,103.20"/>
    </edge>
    <edge id="median_E6_E5_out" from="J4" to="J2" name="Median" priority="0">
        <lane id="median_E6_E5_out_0" index="0" speed="0" length="89.60" width="3.2" shape="-10.40,100.00 -100.00,100.00" disallow="all"/>
    </edge>
    <edge id="E7" from="J4" to="J0" name="South-North Main Road" priority="3">
        <lane id="E7_0" index="0" speed="13.89" length="89.60" shape="6.40,110.40 6.40,200.00"/>
        <lane id="E7_1" index="1" speed="13.89" length="89.60" shape="3.20,110.40 3.20,200.00"/>
    </edge>
    <edge id="median_E7_E8_out" from="J4" to="J0" name="Median" priority="0">
        <lane id="median_E7_E8_out_0" index="0" speed="0" length="89.60" width="3.2" shape="0.00,110.40 0.00,200.00" disallow="all"/>
    </edge>
    <edge id="E8" from="J4" to="J1" name="North-South Main Road" priority="3">
        <lane id="E8_0" index="0" speed="13.89" length="89.60" shape="-6.40,89.60 -6.40,0.00"/>
        <lane id="E8_1" index="1" speed="13.89" length="89.60" shape="-3.20,89.60 -3.20,0.00"/>
    </edge>
    <edge id="median_E8_E7_out" from="J4" to="J1" name="Median" priority="0">
        <lane id="median_E8_E7_out_0" index="0" speed="0" length="89.60" width="3.2" shape="0.00,89.60 0.00,0.00" disallow="all"/>
    </edge>

    <tlLogic id="light" type="static" programID="0" offset="0">
        <phase duration="45" state="GGGrrrrrGGGrrrrr"/>
        <phase duration="4" state="yyyrrrrryyyrrrrr"/>
        <phase duration="15" state="GrrGGrrrGrrGGrrr"/>
        <phase duration="3" state="yrryyrrryrryyrrr"/>
        <phase duration="30" state="rrrrGGGrrrrrGGGr"/>
        <phase duration="3" state="rrrryyyrrrrryyyr"/>
        <phase duration="15" state="GrrrGrrGGrrrGrrG"/>
        <phase duration="3" state="yrrryrryyrrryrry"/>
    </tlLogic>

    <tlLogic id="light" type="static" programID="1" offset="0">
        <phase duration="45" state="GGGrgrrrGGGrgrrr"/>
        <phase duration="4" state="yyyryrrryyyryrrr"/>
        <phase duration="15" state="GrrGGrgrGrrGGrrr"/>
        <phase duration="3" state="yrryyryryrryyrrr"/>
        <phase duration="30" state="rrrrGGGrrrrrGGGr"/>
        <phase duration="3" state="rrrryyyrrrrryyyr"/>
        <phase duration="15" state="GrrrGrrGGrrrGrrG"/>
        <phase duration="3" state="yrrryrryyrrryrry"/>
    </tlLogic>

    <junction id="J0" type="dead_end" x="0.00" y="200.00" incLanes="E7_0 E7_1 median_E7_E8_out_0" intLanes="" shape="0.00,200.00 6.40,200.00 0.00,200.00"/>
    <junction id="J1" type="dead_end" x="0.00" y="0.00" incLanes="E8_0 E8_1 median_E8_E7_out_0" intLanes="" shape="0.00,0.00 -6.40,0.00 0.00,0.00"/>
    <junction id="J2" type="dead_end" x="-100.00" y="100.00" incLanes="E6_0 E6_1 median_E6_E5_out_0" intLanes="" shape="-100.00,100.00 -100.00,106.40 -100.00,100.00"/>
    <junction id="J3" type="dead_end" x="100.00" y="100.00" incLanes="E5_0 E5_1 median_E5_E6_out_0" intLanes="" shape="100.00,100.00 100.00,93.60 100.00,100.00"/>
    <junction id="J4" type="traffic_light" x="0.00" y="100.00" incLanes="-E7_0 -E7_1 median_E7_E8_0 -E5_0 -E5_1 median_E5_E6_0 -E8_0 -E8_1 median_E8_E7_0 -E6_0 -E6_1 median_E6_E5_0" intLanes=":J4_0_0 :J4_1_0 :J4_1_1 :J4_16_0 :J4_4_0 :J4_5_0 :J4_5_1 :J4_17_0 :J4_8_0 :J4_9_0 :J4_9_1 :J4_18_0 :J4_12_0 :J4_13_0 :J4_13_1 :J4_15_0" shape="-8.00,112.00 8.00,112.00 8.44,109.78 9.00,109.00 9.78,108.44 10.78,108.11 12.00,108.00 12.00,92.00 9.78,91.56 9.00,90.60 8.44,89.82 8.11,88.82 8.00,87.60 -8.00,87.60 -8.44,89.82 -9.00,90.60 -9.78,91.56 -10.78,91.89 -12.00,92.00 -12.00,108.00 -9.78,108.44 -9.00,109.00 -8.44,109.78 -8.11,110.78" tl="light">
        <request index="0"  response="0000000000000000" foes="0000000001100000" cont="0"/>
        <request index="1"  response="0000000010000000" foes="1111100011100000" cont="0"/>
        <request index="2"  response="0000000010000000" foes="1111100011100000" cont="0"/>
        <request index="3"  response="0000011010000000" foes="1110011011100000" cont="1"/>
        <request index="4"  response="0000011000000000" foes="0000011000000000" cont="0"/>
        <request index="5"  response="0000111000001111" foes="1000111000001111" cont="0"/>
        <request index="6"  response="0000111000001111" foes="1000111000001111" cont="0"/>
        <request index="7"  response="0110111000001110" foes="0110111000001110" cont="1"/>
        <request index="8"  response="0000000000000000" foes="0110000000000000" cont="0"/>
        <request index="9"  response="0000000010000000" foes="1110000011111000" cont="0"/>
        <request index="10" response="0000000010000000" foes="1110000011111000" cont="0"/>
        <request index="11" response="0000000010000110" foes="1110000011100110" cont="1"/>
        <request index="12" response="0000000000000110" foes="0000000000000110" cont="0"/>
        <request index="13" response="0000111100001110" foes="0000111110001110" cont="0"/>
        <request index="14" response="0000111100001110" foes="0000111110001110" cont="0"/>
        <request index="15" response="0000111001101110" foes="0000111001101110" cont="0"/>
    </junction>

    <junction id=":J4_16_0" type="internal" x="-2.49" y="105.44" incLanes=":J4_3_0 -E8_0 -E8_1" intLanes=":J4_5_0 :J4_5_1 :J4_7_0 :J4_8_0 :J4_9_0 :J4_9_1 :J4_13_0 :J4_13_1 :J4_15_0"/>
    <junction id=":J4_17_0" type="internal" x="4.04" y="100.89" incLanes=":J4_7_0 -E6_0 -E6_1" intLanes=":J4_1_0 :J4_1_1 :J4_3_0 :J4_9_0 :J4_9_1 :J4_11_0 :J4_12_0 :J4_13_0 :J4_13_1"/>
    <junction id=":J4_18_0" type="internal" x="-0.51" y="94.56" incLanes=":J4_11_0 -E7_0 -E7_1" intLanes=":J4_0_0 :J4_1_0 :J4_1_1 :J4_5_0 :J4_5_1 :J4_7_0 :J4_13_0 :J4_13_1 :J4_15_0"/>

    <connection from="-E5" to="E7" fromLane="0" toLane="0" via=":J4_4_0" tl="light" linkIndex="4" dir="r" state="o"/>
    <connection from="-E5" to="E6" fromLane="0" toLane="0" via=":J4_5_0" tl="light" linkIndex="5" dir="s" state="o"/>
    <connection from="-E5" to="E6" fromLane="1" toLane="1" via=":J4_5_1" tl="light" linkIndex="6" dir="s" state="o"/>
    <connection from="-E5" to="E8" fromLane="1" toLane="1" via=":J4_7_0" tl="light" linkIndex="7" dir="l" state="o"/>
    <connection from="-E6" to="E8" fromLane="0" toLane="0" via=":J4_12_0" tl="light" linkIndex="12" dir="r" state="o"/>
    <connection from="-E6" to="E5" fromLane="0" toLane="0" via=":J4_13_0" tl="light" linkIndex="13" dir="s" state="o"/>
    <connection from="-E6" to="E5" fromLane="1" toLane="1" via=":J4_13_1" tl="light" linkIndex="14" dir="s" state="o"/>
    <connection from="-E6" to="E7" fromLane="1" toLane="1" via=":J4_15_0" tl="light" linkIndex="15" dir="l" state="o"/>
    <connection from="-E7" to="E6" fromLane="0" toLane="0" via=":J4_0_0" tl="light" linkIndex="0" dir="r" state="O"/>
    <connection from="-E7" to="E8" fromLane="0" toLane="0" via=":J4_1_0" tl="light" linkIndex="1" dir="s" state="O"/>
    <connection from="-E7" to="E8" fromLane="1" toLane="1" via=":J4_1_1" tl="light" linkIndex="2" dir="s" state="O"/>
    <connection from="-E7" to="E5" fromLane="1" toLane="1" via=":J4_3_0" tl="light" linkIndex="3" dir="l" state="o"/>
    <connection from="-E8" to="E5" fromLane="0" toLane="0" via=":J4_8_0" tl="light" linkIndex="8" dir="r" state="O"/>
    <connection from="-E8" to="E7" fromLane="0" toLane="0" via=":J4_9_0" tl="light" linkIndex="9" dir="s" state="O"/>
    <connection from="-E8" to="E7" fromLane="1" toLane="1" via=":J4_9_1" tl="light" linkIndex="10" dir="s" state="O"/>
    <connection from="-E8" to="E6" fromLane="1" toLane="1" via=":J4_11_0" tl="light" linkIndex="11" dir="l" state="o"/>

    <connection from=":J4_0" to="E6" fromLane="0" toLane="0" dir="r" state="M"/>
    <connection from=":J4_1" to="E8" fromLane="0" toLane="0" dir="s" state="M"/>
    <connection from=":J4_1" to="E8" fromLane="1" toLane="1" dir="s" state="M"/>
    <connection from=":J4_3" to="E5" fromLane="0" toLane="1" via=":J4_16_0" dir="l" state="m"/>
    <connection from=":J4_16" to="E5" fromLane="0" toLane="1" dir="l" state="M"/>
    <connection from=":J4_4" to="E7" fromLane="0" toLane="0" dir="r" state="M"/>
    <connection from=":J4_5" to="E6" fromLane="0" toLane="0" dir="s" state="M"/>
    <connection from=":J4_5" to="E6" fromLane="1" toLane="1" dir="s" state="M"/>
    <connection from=":J4_7" to="E8" fromLane="0" toLane="1" via=":J4_17_0" dir="l" state="m"/>
    <connection from=":J4_17" to="E8" fromLane="0" toLane="1" dir="l" state="M"/>
    <connection from=":J4_8" to="E5" fromLane="0" toLane="0" dir="r" state="M"/>
    <connection from=":J4_9" to="E7" fromLane="0" toLane="0" dir="s" state="M"/>
    <connection from=":J4_9" to="E7" fromLane="1" toLane="1" dir="s" state="M"/>
    <connection from=":J4_11" to="E6" fromLane="0" toLane="1" via=":J4_18_0" dir="l" state="m"/>
    <connection from=":J4_18" to="E6" fromLane="0" toLane="1" dir="l" state="M"/>
    <connection from=":J4_12" to="E8" fromLane="0" toLane="0" dir="r" state="M"/>
    <connection from=":J4_13" to="E5" fromLane="0" toLane="0" dir="s" state="M"/>
    <connection from=":J4_13" to="E5" fromLane="1" toLane="1" dir="s" state="M"/>
    <connection from=":J4_15" to="E7" fromLane="0" toLane="1" dir="l" state="M"/>

</net>