<?xml version="1.0" encoding="UTF-8"?>

<net version="1.20" junctionCornerDetail="5" limitTurnSpeed="5.50" xmlns:xsi="http://www.w3.org/2001/XMLSchema-instance" xsi:noNamespaceSchemaLocation="http://sumo.dlr.de/xsd/net_file.xsd">

    <location netOffset="0.00,0.00" convBoundary="-100.00,0.00,100.00,200.00" origBoundary="-10000000000.00,-10000000000.00,10000000000.00,10000000000.00" projParameter="!"/>

    <edge id=":J0_w0" function="walkingarea">
        <lane id=":J0_w0_0" index="0" allow="pedestrian" speed="2.78" length="14.80" width="2.00" shape="-6.40,200.00 -8.40,200.00 8.40,200.00 6.40,200.00"/>
    </edge>
    <edge id=":J1_w0" function="walkingarea">
        <lane id=":J1_w0_0" index="0" allow="pedestrian" speed="2.78" length="14.80" width="2.00" shape="6.40,0.00 8.40,0.00 -8.40,0.00 -6.40,0.00"/>
    </edge>
    <edge id=":J2_w0" function="walkingarea">
        <lane id=":J2_w0_0" index="0" allow="pedestrian" speed="2.78" length="14.80" width="2.00" shape="-100.00,93.60 -100.00,91.60 -100.00,108.40 -100.00,106.40"/>
    </edge>
    <edge id=":J3_w0" function="walkingarea">
        <lane id=":J3_w0_0" index="0" allow="pedestrian" speed="2.78" length="14.80" width="2.00" shape="100.00,106.40 100.00,108.40 100.00,91.60 100.00,93.60"/>
    </edge>
    <edge id=":J4_0" function="internal">
        <lane id=":J4_0_0" index="0" disallow="pedestrian" speed="6.51" length="4.75" shape="-4.80,110.40 -5.15,107.95 -6.20,106.20 -6.40,106.08"/>
    </edge>
    <edge id=":J4_1" function="internal">
        <lane id=":J4_1_0" index="0" disallow="pedestrian" speed="13.89" length="20.80" shape="-4.80,110.40 -4.80,89.60"/>
        <lane id=":J4_1_1" index="1" disallow="pedestrian" speed="13.89" length="20.80" shape="-1.60,110.40 -1.60,89.60"/>
    </edge>
    <edge id=":J4_3" function="internal">
        <lane id=":J4_3_0" index="0" disallow="pedestrian" speed="9.26" length="5.01" shape="-1.60,110.40 -0.89,105.44"/>
    </edge>
    <edge id=":J4_16" function="internal">
        <lane id=":J4_16_0" index="0" disallow="pedestrian" speed="6.51" length="4.28" shape="-6.40,106.08 -7.95,105.15 -10.40,104.80"/>
    </edge>
    <edge id=":J4_17" function="internal">
        <lane id=":J4_17_0" index="0" disallow="pedestrian" speed="9.26" length="14.34" shape="-0.89,105.44 -0.85,105.15 1.40,101.40 5.15,99.15 10.40,98.40"/>
    </edge>
    <edge id=":J4_4" function="internal">
        <lane id=":J4_4_0" index="0" disallow="pedestrian" speed="6.51" length="4.75" shape="10.40,104.80 7.95,105.15 6.20,106.20 6.08,106.40"/>
    </edge>
    <edge id=":J4_5" function="internal">
        <lane id=":J4_5_0" index="0" disallow="pedestrian" speed="13.89" length="20.80" shape="10.40,104.80 -10.40,104.80"/>
        <lane id=":J4_5_1" index="1" disallow="pedestrian" speed="13.89" length="20.80" shape="10.40,101.60 -10.40,101.60"/>
    </edge>
    <edge id=":J4_7" function="internal">
        <lane id=":J4_7_0" index="0" disallow="pedestrian" speed="9.26" length="5.01" shape="10.40,101.60 5.44,100.89"/>
    </edge>
    <edge id=":J4_18" function="internal">
        <lane id=":J4_18_0" index="0" disallow="pedestrian" speed="6.51" length="4.28" shape="6.08,106.40 5.15,107.95 4.80,110.40"/>
    </edge>
    <edge id=":J4_19" function="internal">
        <lane id=":J4_19_0" index="0" disallow="pedestrian" speed="9.26" length="14.34" shape="5.44,100.89 5.15,100.85 1.40,98.60 -0.85,94.85 -1.60,89.60"/>
    </edge>
    <edge id=":J4_8" function="internal">
        <lane id=":J4_8_0" index="0" disallow="pedestrian" speed="6.51" length="4.75" shape="4.80,89.60 5.15,92.05 6.20,93.80 6.40,93.92"/>
    </edge>
    <edge id=":J4_9" function="internal">
        <lane id=":J4_9_0" index="0" disallow="pedestrian" speed="13.89" length="20.80" shape="4.80,89.60 4.80,110.40"/>
        <lane id=":J4_9_1" index="1" disallow="pedestrian" speed="13.89" length="20.80" shape="1.60,89.60 1.60,110.40"/>
    </edge>
    <edge id=":J4_11" function="internal">
        <lane id=":J4_11_0" index="0" disallow="pedestrian" speed="9.26" length="5.01" shape="1.60,89.60 0.89,94.56"/>
    </edge>
    <edge id=":J4_20" function="internal">
        <lane id=":J4_20_0" index="0" disallow="pedestrian" speed="6.51" length="4.28" shape="6.40,93.92 7.95,94.85 10.40,95.20"/>
    </edge>
    <edge id=":J4_21" function="internal">
        <lane id=":J4_21_0" index="0" disallow="pedestrian" speed="9.26" length="14.34" shape="0.89,94.56 0.85,94.85 -1.40,98.60 -5.15,100.85 -10.40,101.60"/>
    </edge>
    <edge id=":J4_12" function="internal">
        <lane id=":J4_12_0" index="0" disallow="pedestrian" speed="6.51" length="4.75" shape="-10.40,95.20 -7.95,94.85 -6.20,93.80 -6.08,93.60"/>
    </edge>
    <edge id=":J4_13" function="internal">
        <lane id=":J4_13_0" index="0" disallow="pedestrian" speed="13.89" length="20.80" shape="-10.40,95.20 10.40,95.20"/>
        <lane id=":J4_13_1" index="1" disallow="pedestrian" speed="13.89" length="20.80" shape="-10.40,98.40 10.40,98.40"/>
    </edge>
    <edge id=":J4_15" function="internal">
        <lane id=":J4_15_0" index="0" disallow="pedestrian" speed="9.26" length="5.01" shape="-10.40,98.40 -5.44,99.11"/>
    </edge>
    <edge id=":J4_22" function="internal">
        <lane id=":J4_22_0" index="0" disallow="pedestrian" speed="6.51" length="4.28" shape="-6.08,93.60 -5.15,92.05 -4.80,89.60"/>
    </edge>
    <edge id=":J4_23" function="internal">
        <lane id=":J4_23_0" index="0" disallow="pedestrian" speed="9.26" length="14.34" shape="-5.44,99.11 -5.15,99.15 -1.40,101.40 0.85,105.15 1.60,110.40"/>
    </edge>
    <edge id=":J4_c0" function="crossing" crossingEdges="E7 -E7">
        <lane id=":J4_c0_0" index="0" allow="pedestrian" speed="2.78" length="12.80" width="4.00" shape="6.40,108.40 -6.40,108.40" outlineShape="6.50,110.40 -6.50,110.40 -6.51,109.18 -6.84,108.18 -7.40,107.40 -8.18,106.84 -8.51,106.73 -6.40,106.40 6.40,106.40 8.51,106.73 8.18,106.84 7.40,107.40 6.84,108.18 6.51,109.18"/>
    </edge>
    <edge id=":J4_c1" function="crossing" crossingEdges="E5 -E5">
        <lane id=":J4_c1_0" index="0" allow="pedestrian" speed="2.78" length="12.80" width="4.00" shape="8.40,93.60 8.40,106.40" outlineShape="10.40,93.50 10.40,106.50 6.40,110.40 8.40,110.40 10.40,108.40 10.40,106.40 6.40,110.40 6.40,89.60 6.51,90.82 6.84,91.82 7.40,92.60 8.18,93.16 9.18,93.49"/>
    </edge>
    <edge id=":J4_c2" function="crossing" crossingEdges="E8 -E8">
        <lane id=":J4_c2_0" index="0" allow="pedestrian" speed="2.78" length="12.80" width="4.00" shape="-6.40,91.60 6.40,91.60" outlineShape="-6.50,89.60 6.50,89.60 6.51,90.82 6.84,91.82 7.40,92.60 8.18,93.16 8.51,93.27 6.40,93.60 -6.40,93.60 -8.51,93.27 -8.18,93.16 -7.40,92.60 -6.84,91.82 -6.51,90.82"/>
    </edge>
    <edge id=":J4_c3" function="crossing" crossingEdges="E6 -E6">
        <lane id=":J4_c3_0" index="0" allow="pedestrian" speed="2.78" length="12.80" width="4.00" shape="-8.40,106.40 -8.40,93.60" outlineShape="-10.40,106.50 -10.40,93.50 -6.40,89.60 -8.40,89.60 -10.40,91.60 -10.40,93.60 -6.40,89.60 -6.40,110.40 -6.51,109.18 -6.84,108.18 -7.40,107.40 -8.18,106.84 -9.18,106.51"/>
    </edge>
    <edge id=":J4_w0" function="walkingarea">
        <lane id=":J4_w0_0" index="0" allow="pedestrian" speed="2.78" length="3.30" width="4.00" shape="-10.40,106.40 -10.40,108.40 -8.40,110.40 -6.40,110.40 -6.51,109.18 -6.84,108.18 -7.40,107.40 -8.18,106.84 -9.18,106.51"/>
    </edge>
    <edge id=":J4_w1" function="walkingarea">
        <lane id=":J4_w1_0" index="0" allow="pedestrian" speed="2.78" length="3.30" width="4.00" shape="6.40,110.40 8.40,110.40 10.40,108.40 10.40,106.40 9.18,106.51 8.18,106.84 7.40,107.40 6.84,108.18 6.51,109.18"/>
    </edge>
    <edge id=":J4_w2" function="walkingarea">
        <lane id=":J4_w2_0" index="0" allow="pedestrian" speed="2.78" length="3.30" width="4.00" shape="10.40,93.60 10.40,91.60 8.40,89.60 6.40,89.60 6.51,90.82 6.84,91.82 7.40,92.60 8.18,93.16 9.18,93.49"/>
    </edge>
    <edge id=":J4_w3" function="walkingarea">
        <lane id=":J4_w3_0" index="0" allow="pedestrian" speed="2.78" length="3.30" width="4.00" shape="-6.40,89.60 -8.40,89.60 -10.40,91.60 -10.40,93.60 -9.18,93.49 -8.18,93.16 -7.40,92.60 -6.84,91.82 -6.51,90.82"/>
    </edge>

    <edge id="-E5" from="J3" to="J4" name="East-West Road" priority="2">
        <lane id="-E5_0" index="0" allow="pedestrian" speed="13.89" length="89.60" width="2.00" shape="100.00,107.40 10.40,107.40"/>
        <lane id="-E5_1" index="1" disallow="pedestrian" speed="13.89" length="89.60" shape="100.00,104.80 10.40,104.80"/>
        <lane id="-E5_2" index="2" disallow="pedestrian" speed="13.89" length="89.60" shape="100.00,101.60 10.40,101.60"/>
    </edge>
    <edge id="-E6" from="J2" to="J4" name="West-East Road" priority="2">
        <lane id="-E6_0" index="0" allow="pedestrian" speed="13.89" length="89.60" width="2.00" shape="-100.00,92.60 -10.40,92.60"/>
        <lane id="-E6_1" index="1" disallow="pedestrian" speed="13.89" length="89.60" shape="-100.00,95.20 -10.40,95.20"/>
        <lane id="-E6_2" index="2" disallow="pedestrian" speed="13.89" length="89.60" shape="-100.00,98.40 -10.40,98.40"/>
    </edge>
    <edge id="-E7" from="J0" to="J4" name="North-South Main Road" priority="3">
        <lane id="-E7_0" index="0" allow="pedestrian" speed="13.89" length="89.60" width="2.00" shape="-7.40,200.00 -7.40,110.40"/>
        <lane id="-E7_1" index="1" disallow="pedestrian" speed="13.89" length="89.60" shape="-4.80,200.00 -4.80,110.40"/>
        <lane id="-E7_2" index="2" disallow="pedestrian" speed="13.89" length="89.60" shape="-1.60,200.00 -1.60,110.40"/>
    </edge>
    <edge id="-E8" from="J1" to="J4" name="South-North Main Road" priority="3">
        <lane id="-E8_0" index="0" allow="pedestrian" speed="13.89" length="89.60" width="2.00" shape="7.40,0.00 7.40,89.60"/>
        <lane id="-E8_1" index="1" disallow="pedestrian" speed="13.89" length="89.60" shape="4.80,0.00 4.80,89.60"/>
        <lane id="-E8_2" index="2" disallow="pedestrian" speed="13.89" length="89.60" shape="1.60,0.00 1.60,89.60"/>
    </edge>
    <edge id="E5" from="J4" to="J3" name="West-East Road" priority="2">
        <lane id="E5_0" index="0" allow="pedestrian" speed="13.89" length="89.60" width="2.00" shape="10.40,92.60 100.00,92.60"/>
        <lane id="E5_1" index="1" disallow="pedestrian" speed="13.89" length="89.60" shape="10.40,95.20 100.00,95.20"/>
        <lane id="E5_2" index="2" disallow="pedestrian" speed="13.89" length="89.60" shape="10.40,98.40 100.00,98.40"/>
    </edge>
    <edge id="E6" from="J4" to="J2" name="East-West Road" priority="2">
        <lane id="E6_0" index="0" allow="pedestrian" speed="13.89" length="89.60" width="2.00" shape="-10.40,107.40 -100.00,107.40"/>
        <lane id="E6_1" index="1" disallow="pedestrian" speed="13.89" length="89.60" shape="-10.40,104.80 -100.00,104.80"/>
        <lane id="E6_2" index="2" disallow="pedestrian" speed="13.89" length="89.60" shape="-10.40,101.60 -100.00,101.60"/>
    </edge>
    <edge id="E7" from="J4" to="J0" name="South-North Main Road" priority="3">
        <lane id="E7_0" index="0" allow="pedestrian" speed="13.89" length="89.60" width="2.00" shape="7.40,110.40 7.40,200.00"/>
        <lane id="E7_1" index="1" disallow="pedestrian" speed="13.89" length="89.60" shape="4.80,110.40 4.80,200.00"/>
        <lane id="E7_2" index="2" disallow="pedestrian" speed="13.89" length="89.60" shape="1.60,110.40 1.60,200.00"/>
    </edge>
    <edge id="E8" from="J4" to="J1" name="North-South Main Road" priority="3">
        <lane id="E8_0" index="0" allow="pedestrian" speed="13.89" length="89.60" width="2.00" shape="-7.40,89.60 -7.40,0.00"/>
        <lane id="E8_1" index="1" disallow="pedestrian" speed="13.89" length="89.60" shape="-4.80,89.60 -4.80,0.00"/>
        <lane id="E8_2" index="2" disallow="pedestrian" speed="13.89" length="89.60" shape="-1.60,89.60 -1.60,0.00"/>
    </edge>

    <tlLogic id="light" type="static" programID="0" offset="0">
        <phase duration="37" state="gGGgrrrrgGGgrrrrrGrG"/>
        <phase duration="5"  state="gGGgrrrrgGGgrrrrrrrr"/>
        <phase duration="3"  state="yyyyrrrryyyyrrrrrrrr"/>
        <phase duration="37" state="rrrrgGGgrrrrgGGgGrGr"/>
        <phase duration="5"  state="rrrrgGGgrrrrgGGgrrrr"/>
        <phase duration="3"  state="rrrryyyyrrrryyyyrrrr"/>
    </tlLogic>
    <tlLogic id="light" type="static" programID="1" offset="0">
        <phase duration="37" state="gGGgrrrrgGGgrrrrrGrG"/>
        <phase duration="5"  state="gGGgrrrrgGGgrrrrrrrr"/>
        <phase duration="3"  state="yyyyrrrryyyyrrrrrrrr"/>
        <phase duration="37" state="rrrrgGGgrrrrgGGgGrGr"/>
        <phase duration="5"  state="rrrrgGGgrrrrgGGgrrrr"/>
        <phase duration="3"  state="rrrryyyyrrrryyyyrrrr"/>
    </tlLogic>

    <junction id="J0" type="dead_end" x="0.00" y="200.00" incLanes="E7_0 E7_1 E7_2" intLanes="" shape="0.00,200.00 8.40,200.00 0.00,200.00"/>
    <junction id="J1" type="dead_end" x="0.00" y="0.00" incLanes="E8_0 E8_1 E8_2" intLanes="" shape="0.00,0.00 -8.40,0.00 0.00,0.00"/>
    <junction id="J2" type="dead_end" x="-100.00" y="100.00" incLanes="E6_0 E6_1 E6_2" intLanes="" shape="-100.00,100.00 -100.00,108.40 -100.00,100.00"/>
    <junction id="J3" type="dead_end" x="100.00" y="100.00" incLanes="E5_0 E5_1 E5_2" intLanes="" shape="100.00,100.00 100.00,91.60 100.00,100.00"/>
    <junction id="J4" type="traffic_light" x="0.00" y="100.00" incLanes="-E7_0 -E7_1 -E7_2 -E5_0 -E5_1 -E5_2 -E8_0 -E8_1 -E8_2 -E6_0 -E6_1 -E6_2 :J4_w1_0 :J4_w2_0 :J4_w3_0 :J4_w0_0" intLanes=":J4_16_0 :J4_1_0 :J4_1_1 :J4_17_0 :J4_18_0 :J4_5_0 :J4_5_1 :J4_19_0 :J4_20_0 :J4_9_0 :J4_9_1 :J4_21_0 :J4_22_0 :J4_13_0 :J4_13_1 :J4_23_0 :J4_c0_0 :J4_c1_0 :J4_c2_0 :J4_c3_0" shape="-8.40,110.40 8.40,110.40 8.62,109.29 8.90,108.90 9.29,108.62 9.79,108.46 10.40,108.40 10.40,91.60 9.29,91.38 8.90,91.10 8.62,90.71 8.46,90.21 8.40,89.60 -8.40,89.60 -8.62,90.71 -8.90,91.10 -9.29,91.38 -9.79,91.54 -10.40,91.60 -10.40,108.40 -9.29,108.62 -8.90,108.90 -8.62,109.29 -8.46,109.79">
        <request index="0"  response="10010000000000000000" foes="10010000000001100000" cont="1"/>
        <request index="1"  response="01011001000010000000" foes="01011111100011100000" cont="0"/>
        <request index="2"  response="01011001000010000000" foes="01011111100011100000" cont="0"/>
        <request index="3"  response="00111000011010000000" foes="00111110011011100000" cont="1"/>
        <request index="4"  response="00110000011000000000" foes="00110000011000000000" cont="1"/>
        <request index="5"  response="10100000111000001111" foes="10101000111000001111" cont="0"/>
        <request index="6"  response="10100000111000001111" foes="10101000111000001111" cont="0"/>
        <request index="7"  response="01100110111000001110" foes="01100110111000001110" cont="1"/>
        <request index="8"  response="01100000000000000000" foes="01100110000000000000" cont="1"/>
        <request index="9"  response="01011000000010010000" foes="01011110000011111000" cont="0"/>
        <request index="10" response="01011000000010010000" foes="01011110000011111000" cont="0"/>
        <request index="11" response="11001000000010000110" foes="11001110000011100110" cont="1"/>
        <request index="12" response="11000000000000000110" foes="11000000000000000110" cont="1"/>
        <request index="13" response="10100000111100001110" foes="10100000111110001110" cont="0"/>
        <request index="14" response="10100000111100001110" foes="10100000111110001110" cont="0"/>
        <request index="15" response="10010000111001101110" foes="10010000111001101110" cont="1"/>
        <request index="16" response="00000000000000000000" foes="00001000011000011111" cont="0"/>
        <request index="17" response="00000000000000000000" foes="00000110000111111000" cont="0"/>
        <request index="18" response="00000000000000000000" foes="00000001111110000110" cont="0"/>
        <request index="19" response="00000000000000000000" foes="00001111100001100001" cont="0"/>
    </junction>

    <junction id=":J4_16_0" type="internal" x="-6.40" y="106.08" incLanes=":J4_0_0" intLanes=":J4_5_0 :J4_5_1 :J4_11_0 :J4_c0_0 :J4_c3_0"/>
    <junction id=":J4_17_0" type="internal" x="-0.89" y="105.44" incLanes=":J4_3_0 -E8_1 -E8_2" intLanes=":J4_5_0 :J4_5_1 :J4_7_0 :J4_8_0 :J4_9_0 :J4_9_1 :J4_13_0 :J4_13_1 :J4_15_0 :J4_c0_0 :J4_c1_0"/>
    <junction id=":J4_18_0" type="internal" x="6.08" y="106.40" incLanes=":J4_4_0" intLanes=":J4_9_0 :J4_9_1 :J4_15_0 :J4_c0_0 :J4_c1_0"/>
    <junction id=":J4_19_0" type="internal" x="5.44" y="100.89" incLanes=":J4_7_0 -E6_1 -E6_2" intLanes=":J4_1_0 :J4_1_1 :J4_3_0 :J4_9_0 :J4_9_1 :J4_11_0 :J4_12_0 :J4_13_0 :J4_13_1 :J4_c1_0 :J4_c2_0"/>
    <junction id=":J4_20_0" type="internal" x="6.40" y="93.92" incLanes=":J4_8_0" intLanes=":J4_3_0 :J4_13_0 :J4_13_1 :J4_c1_0 :J4_c2_0"/>
    <junction id=":J4_21_0" type="internal" x="0.89" y="94.56" incLanes=":J4_11_0 -E7_1 -E7_2" intLanes=":J4_0_0 :J4_1_0 :J4_1_1 :J4_5_0 :J4_5_1 :J4_7_0 :J4_13_0 :J4_13_1 :J4_15_0 :J4_c2_0 :J4_c3_0"/>
    <junction id=":J4_22_0" type="internal" x="-6.08" y="93.60" incLanes=":J4_12_0" intLanes=":J4_1_0 :J4_1_1 :J4_7_0 :J4_c2_0 :J4_c3_0"/>
    <junction id=":J4_23_0" type="internal" x="-5.44" y="99.11" incLanes=":J4_15_0 -E5_1 -E5_2" intLanes=":J4_1_0 :J4_1_1 :J4_3_0 :J4_4_0 :J4_5_0 :J4_5_1 :J4_9_0 :J4_9_1 :J4_11_0 :J4_c0_0 :J4_c3_0"/>

    <connection from="-E5" to="E7" fromLane="1" toLane="1" via=":J4_4_0" tl="light" linkIndex="4" dir="r" state="o"/>
    <connection from="-E5" to="E6" fromLane="1" toLane="1" via=":J4_5_0" tl="light" linkIndex="5" dir="s" state="o"/>
    <connection from="-E5" to="E6" fromLane="2" toLane="2" via=":J4_5_1" tl="light" linkIndex="6" dir="s" state="o"/>
    <connection from="-E5" to="E8" fromLane="2" toLane="2" via=":J4_7_0" tl="light" linkIndex="7" dir="l" state="o"/>
    <connection from="-E6" to="E8" fromLane="1" toLane="1" via=":J4_12_0" tl="light" linkIndex="12" dir="r" state="o"/>
    <connection from="-E6" to="E5" fromLane="1" toLane="1" via=":J4_13_0" tl="light" linkIndex="13" dir="s" state="o"/>
    <connection from="-E6" to="E5" fromLane="2" toLane="2" via=":J4_13_1" tl="light" linkIndex="14" dir="s" state="o"/>
    <connection from="-E6" to="E7" fromLane="2" toLane="2" via=":J4_15_0" tl="light" linkIndex="15" dir="l" state="o"/>
    <connection from="-E7" to="E6" fromLane="1" toLane="1" via=":J4_0_0" tl="light" linkIndex="0" dir="r" state="o"/>
    <connection from="-E7" to="E8" fromLane="1" toLane="1" via=":J4_1_0" tl="light" linkIndex="1" dir="s" state="o"/>
    <connection from="-E7" to="E8" fromLane="2" toLane="2" via=":J4_1_1" tl="light" linkIndex="2" dir="s" state="o"/>
    <connection from="-E7" to="E5" fromLane="2" toLane="2" via=":J4_3_0" tl="light" linkIndex="3" dir="l" state="o"/>
    <connection from="-E8" to="E5" fromLane="1" toLane="1" via=":J4_8_0" tl="light" linkIndex="8" dir="r" state="o"/>
    <connection from="-E8" to="E7" fromLane="1" toLane="1" via=":J4_9_0" tl="light" linkIndex="9" dir="s" state="o"/>
    <connection from="-E8" to="E7" fromLane="2" toLane="2" via=":J4_9_1" tl="light" linkIndex="10" dir="s" state="o"/>
    <connection from="-E8" to="E6" fromLane="2" toLane="2" via=":J4_11_0" tl="light" linkIndex="11" dir="l" state="o"/>

    <connection from=":J4_0" to="E6" fromLane="0" toLane="1" via=":J4_16_0" dir="r" state="m"/>
    <connection from=":J4_16" to="E6" fromLane="0" toLane="1" dir="r" state="m"/>
    <connection from=":J4_1" to="E8" fromLane="0" toLane="1" dir="s" state="M"/>
    <connection from=":J4_1" to="E8" fromLane="1" toLane="2" dir="s" state="M"/>
    <connection from=":J4_3" to="E5" fromLane="0" toLane="2" via=":J4_17_0" dir="l" state="m"/>
    <connection from=":J4_17" to="E5" fromLane="0" toLane="2" dir="l" state="m"/>
    <connection from=":J4_4" to="E7" fromLane="0" toLane="1" via=":J4_18_0" dir="r" state="m"/>
    <connection from=":J4_18" to="E7" fromLane="0" toLane="1" dir="r" state="m"/>
    <connection from=":J4_5" to="E6" fromLane="0" toLane="1" dir="s" state="M"/>
    <connection from=":J4_5" to="E6" fromLane="1" toLane="2" dir="s" state="M"/>
    <connection from=":J4_7" to="E8" fromLane="0" toLane="2" via=":J4_19_0" dir="l" state="m"/>
    <connection from=":J4_19" to="E8" fromLane="0" toLane="2" dir="l" state="m"/>
    <connection from=":J4_8" to="E5" fromLane="0" toLane="1" via=":J4_20_0" dir="r" state="m"/>
    <connection from=":J4_20" to="E5" fromLane="0" toLane="1" dir="r" state="m"/>
    <connection from=":J4_9" to="E7" fromLane="0" toLane="1" dir="s" state="M"/>
    <connection from=":J4_9" to="E7" fromLane="1" toLane="2" dir="s" state="M"/>
    <connection from=":J4_11" to="E6" fromLane="0" toLane="2" via=":J4_21_0" dir="l" state="m"/>
    <connection from=":J4_21" to="E6" fromLane="0" toLane="2" dir="l" state="m"/>
    <connection from=":J4_12" to="E8" fromLane="0" toLane="1" via=":J4_22_0" dir="r" state="m"/>
    <connection from=":J4_22" to="E8" fromLane="0" toLane="1" dir="r" state="m"/>
    <connection from=":J4_13" to="E5" fromLane="0" toLane="1" dir="s" state="M"/>
    <connection from=":J4_13" to="E5" fromLane="1" toLane="2" dir="s" state="M"/>
    <connection from=":J4_15" to="E7" fromLane="0" toLane="2" via=":J4_23_0" dir="l" state="m"/>
    <connection from=":J4_23" to="E7" fromLane="0" toLane="2" dir="l" state="m"/>

    <connection from=":J0_w0" to="-E7" fromLane="0" toLane="0" dir="s" state="M"/>
    <connection from="E7" to=":J0_w0" fromLane="0" toLane="0" dir="s" state="M"/>
    <connection from=":J1_w0" to="-E8" fromLane="0" toLane="0" dir="s" state="M"/>
    <connection from="E8" to=":J1_w0" fromLane="0" toLane="0" dir="s" state="M"/>
    <connection from=":J2_w0" to="-E6" fromLane="0" toLane="0" dir="s" state="M"/>
    <connection from="E6" to=":J2_w0" fromLane="0" toLane="0" dir="s" state="M"/>
    <connection from=":J3_w0" to="-E5" fromLane="0" toLane="0" dir="s" state="M"/>
    <connection from="E5" to=":J3_w0" fromLane="0" toLane="0" dir="s" state="M"/>
    <connection from=":J4_c0" to=":J4_w0" fromLane="0" toLane="0" dir="s" state="M"/>
    <connection from=":J4_c1" to=":J4_w1" fromLane="0" toLane="0" dir="s" state="M"/>
    <connection from=":J4_c2" to=":J4_w2" fromLane="0" toLane="0" dir="s" state="M"/>
    <connection from=":J4_c3" to=":J4_w3" fromLane="0" toLane="0" dir="s" state="M"/>
    <connection from=":J4_w0" to=":J4_c3" fromLane="0" toLane="0" tl="light" linkIndex="19" dir="s" state="M"/>
    <connection from=":J4_w0" to="E6" fromLane="0" toLane="0" dir="s" state="M"/>
    <connection from="-E7" to=":J4_w0" fromLane="0" toLane="0" dir="s" state="M"/>
    <connection from=":J4_w1" to=":J4_c0" fromLane="0" toLane="0" tl="light" linkIndex="16" dir="s" state="M"/>
    <connection from=":J4_w1" to="E7" fromLane="0" toLane="0" dir="s" state="M"/>
    <connection from="-E5" to=":J4_w1" fromLane="0" toLane="0" dir="s" state="M"/>
    <connection from=":J4_w2" to=":J4_c1" fromLane="0" toLane="0" tl="light" linkIndex="17" dir="s" state="M"/>
    <connection from=":J4_w2" to="E5" fromLane="0" toLane="0" dir="s" state="M"/>
    <connection from="-E8" to=":J4_w2" fromLane="0" toLane="0" dir="s" state="M"/>
    <connection from=":J4_w3" to=":J4_c2" fromLane="0" toLane="0" tl="light" linkIndex="18" dir="s" state="M"/>
    <connection from=":J4_w3" to="E8" fromLane="0" toLane="0" dir="s" state="M"/>
    <connection from="-E6" to=":J4_w3" fromLane="0" toLane="0" dir="s" state="M"/>
</net>
