<?xml version="1.0" encoding="UTF-8"?>

<!-- generated on 2025-03-20 10:56:49 by Eclipse SUMO netconvert Version 1.22.0
<netconvertConfiguration xmlns:xsi="http://www.w3.org/2001/XMLSchema-instance" xsi:noNamespaceSchemaLocation="http://sumo.dlr.de/xsd/netconvertConfiguration.xsd">

    <input>
        <sumo-net-file value="cross.net.xml"/>
    </input>

    <output>
        <output-file value="cross_fixed.net.xml"/>
        <output.street-names value="true"/>
    </output>

    <processing>
        <geometry.min-radius.fix.railways value="false"/>
        <geometry.max-grade.fix value="false"/>
        <offset.disable-normalization value="true"/>
        <lefthand value="0"/>
    </processing>

    <junctions>
        <no-turnarounds value="true"/>
        <junctions.corner-detail value="5"/>
        <junctions.limit-turn-speed value="5.50"/>
        <rectangular-lane-cut value="0"/>
    </junctions>

    <pedestrian>
        <walkingareas value="0"/>
    </pedestrian>

    <report>
        <xml-validation value="never"/>
    </report>

</netconvertConfiguration>
-->

<net version="1.20" junctionCornerDetail="5" limitTurnSpeed="5.50" xmlns:xsi="http://www.w3.org/2001/XMLSchema-instance" xsi:noNamespaceSchemaLocation="http://sumo.dlr.de/xsd/net_file.xsd">

    <location netOffset="0.00,0.00" convBoundary="-100.00,0.00,100.00,200.00" origBoundary="-10000000000.00,-10000000000.00,10000000000.00,10000000000.00" projParameter="!"/>

    <edge id=":J4_0" function="internal">
        <lane id=":J4_0_0" index="0" speed="6.51" length="9.03" shape="-4.80,110.40 -5.15,107.95 -6.20,106.20 -7.95,105.15 -10.40,104.80"/>
    </edge>
    <edge id=":J4_1" function="internal">
        <lane id=":J4_1_0" index="0" speed="13.89" length="20.80" shape="-4.80,110.40 -4.80,89.60"/>
        <lane id=":J4_1_1" index="1" speed="13.89" length="20.80" shape="-1.60,110.40 -1.60,89.60"/>
    </edge>
    <edge id=":J4_3" function="internal">
        <lane id=":J4_3_0" index="0" speed="9.26" length="5.01" shape="-1.60,110.40 -0.89,105.44"/>
    </edge>
    <edge id=":J4_16" function="internal">
        <lane id=":J4_16_0" index="0" speed="9.26" length="14.34" shape="-0.89,105.44 -0.85,105.15 1.40,101.40 5.15,99.15 10.40,98.40"/>
    </edge>
    <edge id=":J4_4" function="internal">
        <lane id=":J4_4_0" index="0" speed="6.51" length="9.03" shape="10.40,104.80 7.95,105.15 6.20,106.20 5.15,107.95 4.80,110.40"/>
    </edge>
    <edge id=":J4_5" function="internal">
        <lane id=":J4_5_0" index="0" speed="13.89" length="20.80" shape="10.40,104.80 -10.40,104.80"/>
        <lane id=":J4_5_1" index="1" speed="13.89" length="20.80" shape="10.40,101.60 -10.40,101.60"/>
    </edge>
    <edge id=":J4_7" function="internal">
        <lane id=":J4_7_0" index="0" speed="9.26" length="5.01" shape="10.40,101.60 5.44,100.89"/>
    </edge>
    <edge id=":J4_17" function="internal">
        <lane id=":J4_17_0" index="0" speed="9.26" length="14.34" shape="5.44,100.89 5.15,100.85 1.40,98.60 -0.85,94.85 -1.60,89.60"/>
    </edge>
    <edge id=":J4_8" function="internal">
        <lane id=":J4_8_0" index="0" speed="6.51" length="9.03" shape="4.80,89.60 5.15,92.05 6.20,93.80 7.95,94.85 10.40,95.20"/>
    </edge>
    <edge id=":J4_9" function="internal">
        <lane id=":J4_9_0" index="0" speed="13.89" length="20.80" shape="4.80,89.60 4.80,110.40"/>
        <lane id=":J4_9_1" index="1" speed="13.89" length="20.80" shape="1.60,89.60 1.60,110.40"/>
    </edge>
    <edge id=":J4_11" function="internal">
        <lane id=":J4_11_0" index="0" speed="9.26" length="5.01" shape="1.60,89.60 0.89,94.56"/>
    </edge>
    <edge id=":J4_18" function="internal">
        <lane id=":J4_18_0" index="0" speed="9.26" length="14.34" shape="0.89,94.56 0.85,94.85 -1.40,98.60 -5.15,100.85 -10.40,101.60"/>
    </edge>
    <edge id=":J4_12" function="internal">
        <lane id=":J4_12_0" index="0" speed="6.51" length="9.03" shape="-10.40,95.20 -7.95,94.85 -6.20,93.80 -5.15,92.05 -4.80,89.60"/>
    </edge>
    <edge id=":J4_13" function="internal">
        <lane id=":J4_13_0" index="0" speed="13.89" length="20.80" shape="-10.40,95.20 10.40,95.20"/>
        <lane id=":J4_13_1" index="1" speed="13.89" length="20.80" shape="-10.40,98.40 10.40,98.40"/>
    </edge>
    <edge id=":J4_15" function="internal">
        <lane id=":J4_15_0" index="0" speed="9.26" length="19.35" shape="-10.40,98.40 -5.15,99.15 -1.40,101.40 0.85,105.15 1.60,110.40"/>
    </edge>

    <edge id="-E5" from="J3" to="J4" name="East-West Road" priority="2">
        <lane id="-E5_0" index="0" speed="13.89" length="89.60" shape="100.00,104.80 10.40,104.80"/>
        <lane id="-E5_1" index="1" speed="13.89" length="89.60" shape="100.00,101.60 10.40,101.60"/>
    </edge>
    <edge id="-E6" from="J2" to="J4" name="West-East Road" priority="2">
        <lane id="-E6_0" index="0" speed="13.89" length="89.60" shape="-100.00,95.20 -10.40,95.20"/>
        <lane id="-E6_1" index="1" speed="13.89" length="89.60" shape="-100.00,98.40 -10.40,98.40"/>
    </edge>
    <edge id="-E7" from="J0" to="J4" name="North-South Main Road" priority="3">
        <lane id="-E7_0" index="0" speed="13.89" length="89.60" shape="-4.80,200.00 -4.80,110.40"/>
        <lane id="-E7_1" index="1" speed="13.89" length="89.60" shape="-1.60,200.00 -1.60,110.40"/>
    </edge>
    <edge id="-E8" from="J1" to="J4" name="South-North Main Road" priority="3">
        <lane id="-E8_0" index="0" speed="13.89" length="89.60" shape="4.80,0.00 4.80,89.60"/>
        <lane id="-E8_1" index="1" speed="13.89" length="89.60" shape="1.60,0.00 1.60,89.60"/>
    </edge>
    <edge id="E5" from="J4" to="J3" name="West-East Road" priority="2">
        <lane id="E5_0" index="0" speed="13.89" length="89.60" shape="10.40,95.20 100.00,95.20"/>
        <lane id="E5_1" index="1" speed="13.89" length="89.60" shape="10.40,98.40 100.00,98.40"/>
    </edge>
    <edge id="E6" from="J4" to="J2" name="East-West Road" priority="2">
        <lane id="E6_0" index="0" speed="13.89" length="89.60" shape="-10.40,104.80 -100.00,104.80"/>
        <lane id="E6_1" index="1" speed="13.89" length="89.60" shape="-10.40,101.60 -100.00,101.60"/>
    </edge>
    <edge id="E7" from="J4" to="J0" name="South-North Main Road" priority="3">
        <lane id="E7_0" index="0" speed="13.89" length="89.60" shape="4.80,110.40 4.80,200.00"/>
        <lane id="E7_1" index="1" speed="13.89" length="89.60" shape="1.60,110.40 1.60,200.00"/>
    </edge>
    <edge id="E8" from="J4" to="J1" name="North-South Main Road" priority="3">
        <lane id="E8_0" index="0" speed="13.89" length="89.60" shape="-4.80,89.60 -4.80,0.00"/>
        <lane id="E8_1" index="1" speed="13.89" length="89.60" shape="-1.60,89.60 -1.60,0.00"/>
    </edge>
    
    
    <tlLogic id="light" type="static" programID="0" offset="0">
        <phase duration="45" state="GGGrrrrrGGGrrrrr"/>
        <phase duration="4" state="yyyrrrrryyyrrrrr"/>
        <phase duration="15" state="GrrGGrrrGrrGGrrr"/>
        <phase duration="3" state="yrryyrrryrryyrrr"/>
        <phase duration="30" state="rrrrGGGrrrrrGGGr"/>
        <phase duration="3" state="rrrryyyrrrrryyyr"/>
        <phase duration="15" state="GrrrGrrGGrrrGrrG"/>
        <phase duration="3" state="yrrryrryyrrryrry"/>
    </tlLogic>
    

     <tlLogic id="light" type="static" programID="1" offset="0">
        <phase duration="45" state="GGGrgrrrGGGrgrrr"/>
        <phase duration="4" state="yyyryrrryyyryrrr"/>
        <phase duration="15" state="GrrGGrgrGrrGGrrr"/>
        <phase duration="3" state="yrryyryryrryyrrr"/>
        <phase duration="30" state="rrrrGGGrrrrrGGGr"/>
        <phase duration="3" state="rrrryyyrrrrryyyr"/>
        <phase duration="15" state="GrrrGrrGGrrrGrrG"/>
        <phase duration="3" state="yrrryrryyrrryrry"/>
    </tlLogic>
    
    
    <junction id="J0" type="dead_end" x="0.00" y="200.00" incLanes="E7_0 E7_1" intLanes="" shape="0.00,200.00 6.40,200.00 0.00,200.00"/>
    <junction id="J1" type="dead_end" x="0.00" y="0.00" incLanes="E8_0 E8_1" intLanes="" shape="0.00,0.00 -6.40,0.00 0.00,0.00"/>
    <junction id="J2" type="dead_end" x="-100.00" y="100.00" incLanes="E6_0 E6_1" intLanes="" shape="-100.00,100.00 -100.00,106.40 -100.00,100.00"/>
    <junction id="J3" type="dead_end" x="100.00" y="100.00" incLanes="E5_0 E5_1" intLanes="" shape="100.00,100.00 100.00,93.60 100.00,100.00"/>
    <junction id="J4" type="traffic_light" x="0.00" y="100.00" incLanes="-E7_0 -E7_1 -E5_0 -E5_1 -E8_0 -E8_1 -E6_0 -E6_1" intLanes=":J4_0_0 :J4_1_0 :J4_1_1 :J4_16_0 :J4_4_0 :J4_5_0 :J4_5_1 :J4_17_0 :J4_8_0 :J4_9_0 :J4_9_1 :J4_18_0 :J4_12_0 :J4_13_0 :J4_13_1 :J4_15_0" shape="-6.40,110.40 6.40,110.40 6.84,108.18 7.40,107.40 8.18,106.84 9.18,106.51 10.40,106.40 10.40,93.60 8.18,93.16 7.40,92.60 6.84,91.82 6.51,90.82 6.40,89.60 -6.40,89.60 -6.84,91.82 -7.40,92.60 -8.18,93.16 -9.18,93.49 -10.40,93.60 -10.40,106.40 -8.18,106.84 -7.40,107.40 -6.84,108.18 -6.51,109.18" tl="light">        <request index="0"  response="0000000000000000" foes="0000000001100000" cont="0"/>
        <request index="1"  response="0000000010000000" foes="1111100011100000" cont="0"/>
        <request index="2"  response="0000000010000000" foes="1111100011100000" cont="0"/>
        <request index="3"  response="0000011010000000" foes="1110011011100000" cont="1"/>
        <request index="4"  response="0000011000000000" foes="0000011000000000" cont="0"/>
        <request index="5"  response="0000111000001111" foes="1000111000001111" cont="0"/>
        <request index="6"  response="0000111000001111" foes="1000111000001111" cont="0"/>
        <request index="7"  response="0110111000001110" foes="0110111000001110" cont="1"/>
        <request index="8"  response="0000000000000000" foes="0110000000000000" cont="0"/>
        <request index="9"  response="0000000010000000" foes="1110000011111000" cont="0"/>
        <request index="10" response="0000000010000000" foes="1110000011111000" cont="0"/>
        <request index="11" response="0000000010000110" foes="1110000011100110" cont="1"/>
        <request index="12" response="0000000000000110" foes="0000000000000110" cont="0"/>
        <request index="13" response="0000111100001110" foes="0000111110001110" cont="0"/>
        <request index="14" response="0000111100001110" foes="0000111110001110" cont="0"/>
        <request index="15" response="0000111001101110" foes="0000111001101110" cont="0"/>
    </junction>

    <junction id=":J4_16_0" type="internal" x="-0.89" y="105.44" incLanes=":J4_3_0 -E8_0 -E8_1" intLanes=":J4_5_0 :J4_5_1 :J4_7_0 :J4_8_0 :J4_9_0 :J4_9_1 :J4_13_0 :J4_13_1 :J4_15_0"/>
    <junction id=":J4_17_0" type="internal" x="5.44" y="100.89" incLanes=":J4_7_0 -E6_0 -E6_1" intLanes=":J4_1_0 :J4_1_1 :J4_3_0 :J4_9_0 :J4_9_1 :J4_11_0 :J4_12_0 :J4_13_0 :J4_13_1"/>
    <junction id=":J4_18_0" type="internal" x="0.89" y="94.56" incLanes=":J4_11_0 -E7_0 -E7_1" intLanes=":J4_0_0 :J4_1_0 :J4_1_1 :J4_5_0 :J4_5_1 :J4_7_0 :J4_13_0 :J4_13_1 :J4_15_0"/>

    <connection from="-E5" to="E7" fromLane="0" toLane="0" via=":J4_4_0" tl="light" linkIndex="4" dir="r" state="o"/>
    <connection from="-E5" to="E6" fromLane="0" toLane="0" via=":J4_5_0" tl="light" linkIndex="5" dir="s" state="o"/>
    <connection from="-E5" to="E6" fromLane="1" toLane="1" via=":J4_5_1" tl="light" linkIndex="6" dir="s" state="o"/>
    <connection from="-E5" to="E8" fromLane="1" toLane="1" via=":J4_7_0" tl="light" linkIndex="7" dir="l" state="o"/>
    <connection from="-E6" to="E8" fromLane="0" toLane="0" via=":J4_12_0" tl="light" linkIndex="12" dir="r" state="o"/>
    <connection from="-E6" to="E5" fromLane="0" toLane="0" via=":J4_13_0" tl="light" linkIndex="13" dir="s" state="o"/>
    <connection from="-E6" to="E5" fromLane="1" toLane="1" via=":J4_13_1" tl="light" linkIndex="14" dir="s" state="o"/>
    <connection from="-E6" to="E7" fromLane="1" toLane="1" via=":J4_15_0" tl="light" linkIndex="15" dir="l" state="o"/>
    <connection from="-E7" to="E6" fromLane="0" toLane="0" via=":J4_0_0" tl="light" linkIndex="0" dir="r" state="O"/>
    <connection from="-E7" to="E8" fromLane="0" toLane="0" via=":J4_1_0" tl="light" linkIndex="1" dir="s" state="O"/>
    <connection from="-E7" to="E8" fromLane="1" toLane="1" via=":J4_1_1" tl="light" linkIndex="2" dir="s" state="O"/>
    <connection from="-E7" to="E5" fromLane="1" toLane="1" via=":J4_3_0" tl="light" linkIndex="3" dir="l" state="o"/>
    <connection from="-E8" to="E5" fromLane="0" toLane="0" via=":J4_8_0" tl="light" linkIndex="8" dir="r" state="O"/>
    <connection from="-E8" to="E7" fromLane="0" toLane="0" via=":J4_9_0" tl="light" linkIndex="9" dir="s" state="O"/>
    <connection from="-E8" to="E7" fromLane="1" toLane="1" via=":J4_9_1" tl="light" linkIndex="10" dir="s" state="O"/>
    <connection from="-E8" to="E6" fromLane="1" toLane="1" via=":J4_11_0" tl="light" linkIndex="11" dir="l" state="o"/>

    <connection from=":J4_0" to="E6" fromLane="0" toLane="0" dir="r" state="M"/>
    <connection from=":J4_1" to="E8" fromLane="0" toLane="0" dir="s" state="M"/>
    <connection from=":J4_1" to="E8" fromLane="1" toLane="1" dir="s" state="M"/>
    <connection from=":J4_3" to="E5" fromLane="0" toLane="1" via=":J4_16_0" dir="l" state="m"/>
    <connection from=":J4_16" to="E5" fromLane="0" toLane="1" dir="l" state="M"/>
    <connection from=":J4_4" to="E7" fromLane="0" toLane="0" dir="r" state="M"/>
    <connection from=":J4_5" to="E6" fromLane="0" toLane="0" dir="s" state="M"/>
    <connection from=":J4_5" to="E6" fromLane="1" toLane="1" dir="s" state="M"/>
    <connection from=":J4_7" to="E8" fromLane="0" toLane="1" via=":J4_17_0" dir="l" state="m"/>
    <connection from=":J4_17" to="E8" fromLane="0" toLane="1" dir="l" state="M"/>
    <connection from=":J4_8" to="E5" fromLane="0" toLane="0" dir="r" state="M"/>
    <connection from=":J4_9" to="E7" fromLane="0" toLane="0" dir="s" state="M"/>
    <connection from=":J4_9" to="E7" fromLane="1" toLane="1" dir="s" state="M"/>
    <connection from=":J4_11" to="E6" fromLane="0" toLane="1" via=":J4_18_0" dir="l" state="m"/>
    <connection from=":J4_18" to="E6" fromLane="0" toLane="1" dir="l" state="M"/>
    <connection from=":J4_12" to="E8" fromLane="0" toLane="0" dir="r" state="M"/>
    <connection from=":J4_13" to="E5" fromLane="0" toLane="0" dir="s" state="M"/>
    <connection from=":J4_13" to="E5" fromLane="1" toLane="1" dir="s" state="M"/>
    <connection from=":J4_15" to="E7" fromLane="0" toLane="1" dir="l" state="M"/>

</net>
