<?xml version="1.0" encoding="UTF-8"?>

<routes>
    <!-- Definizione dei tipi di veicolo -->
    <vType id="car" vClass="passenger" length="4.5" maxSpeed="13.89" accel="2.5" decel="4.0" sigma="0.5" color="yellow" reroute="true" jmIgnoreFoeProb="0.5" jmTimegapMinor="0.5" jmIgnoreFoeSpeed="2.0"/>
    <vType id="motorcycle" vClass="motorcycle" length="2.0" maxSpeed="13.89" accel="3.0" decel="3.5" sigma="0.6" color="red" reroute="true" jmIgnoreFoeProb="0.6" jmTimegapMinor="0.4" jmIgnoreFoeSpeed="2.5"/>
    <vType id="truck" vClass="truck" length="7.0" maxSpeed="11.11" accel="1.5" decel="3.0" sigma="0.4" color="blue" reroute="true" jmIgnoreFoeProb="0.3" jmTimegapMinor="0.8" jmIgnoreFoeSpeed="1.5"/>
    <vType id="delivery" vClass="delivery" length="6.0" maxSpeed="9.72" accel="1.8" decel="3.0" sigma="0.4" color="green" reroute="true" jmIgnoreFoeProb="0.3" jmTimegapMinor="0.7" jmIgnoreFoeSpeed="1.5"/>
    <vType id="bus" vClass="bus" length="12.0" maxSpeed="8.33" accel="1.0" decel="2.5" sigma="0.3" color="white" reroute="true" jmIgnoreFoeProb="0.2" jmTimegapMinor="1.0" jmIgnoreFoeSpeed="1.2"/>
    <!-- Flussi di Traffico -->
    <!-- Nord-Sud (Strada Principale) -->
    <!-- Nord-Sud (Risveglio) -->
    <flow id="NS_wakeup_car" type="car" from="-E7" to="E8" begin="0" end="25200" probability="0.01"/> <!-- Dritto -->
    <flow id="NS_wakeup_car_left" type="car" from="-E7" to="E5" begin="0" end="25200" probability="0.002"/> <!-- Sinistra, da 0.005 -->
    <flow id="NS_wakeup_car_right" type="car" from="-E7" to="E6" begin="0" end="25200" probability="0.002"/> <!-- Destra, da 0.005 -->
    <flow id="NS_wakeup_moto" type="motorcycle" from="-E7" to="E8" begin="0" end="25200" probability="0.005"/> <!-- Dritto -->
    <flow id="NS_wakeup_moto_left" type="motorcycle" from="-E7" to="E5" begin="0" end="25200" probability="0.001"/> <!-- Sinistra, da 0.002 -->
    <flow id="NS_wakeup_moto_right" type="motorcycle" from="-E7" to="E6" begin="0" end="25200" probability="0.001"/> <!-- Destra, da 0.002 -->
    <flow id="NS_wakeup_truck" type="truck" from="-E7" to="E8" begin="0" end="25200" probability="0.002"/> <!-- Dritto -->
    <flow id="NS_wakeup_delivery" type="delivery" from="-E7" to="E8" begin="0" end="25200" probability="0.002"/> <!-- Dritto -->
    <flow id="NS_wakeup_bus" type="bus" from="-E7" to="E8" begin="0" end="25200" probability="0.001"/> <!-- Dritto -->

    <!-- Sud-Nord (Risveglio) -->
    <flow id="SN_wakeup_car" type="car" from="-E8" to="E7" begin="0" end="25200" probability="0.01"/> <!-- Dritto -->
    <flow id="SN_wakeup_car_left" type="car" from="-E8" to="E6" begin="0" end="25200" probability="0.002"/> <!-- Sinistra, da 0.005 -->
    <flow id="SN_wakeup_car_right" type="car" from="-E8" to="E5" begin="0" end="25200" probability="0.002"/> <!-- Destra, da 0.005 -->
    <flow id="SN_wakeup_moto" type="motorcycle" from="-E8" to="E7" begin="0" end="25200" probability="0.005"/> <!-- Dritto -->
    <flow id="SN_wakeup_moto_left" type="motorcycle" from="-E8" to="E6" begin="0" end="25200" probability="0.001"/> <!-- Sinistra, da 0.002 -->
    <flow id="SN_wakeup_moto_right" type="motorcycle" from="-E8" to="E5" begin="0" end="25200" probability="0.001"/> <!-- Destra, da 0.002 -->
    <flow id="SN_wakeup_truck" type="truck" from="-E8" to="E7" begin="0" end="25200" probability="0.002"/> <!-- Dritto -->
    <flow id="SN_wakeup_delivery" type="delivery" from="-E8" to="E7" begin="0" end="25200" probability="0.002"/> <!-- Dritto -->
    <flow id="SN_wakeup_bus" type="bus" from="-E8" to="E7" begin="0" end="25200" probability="0.001"/> <!-- Dritto -->

    <!-- Est-Ovest (Risveglio) -->
    <flow id="EW_wakeup_car" type="car" from="-E5" to="E6" begin="0" end="25200" probability="0.007"/> <!-- Dritto -->
    <flow id="EW_wakeup_car_left" type="car" from="-E5" to="E8" begin="0" end="25200" probability="0.002"/> <!-- Sinistra, da 0.003 -->
    <flow id="EW_wakeup_car_right" type="car" from="-E5" to="E7" begin="0" end="25200" probability="0.002"/> <!-- Destra, da 0.003 -->
    <flow id="EW_wakeup_moto" type="motorcycle" from="-E5" to="E6" begin="0" end="25200" probability="0.003"/> <!-- Dritto -->
    <flow id="EW_wakeup_moto_left" type="motorcycle" from="-E5" to="E8" begin="0" end="25200" probability="0.0005"/> <!-- Sinistra, da 0.001 -->
    <flow id="EW_wakeup_moto_right" type="motorcycle" from="-E5" to="E7" begin="0" end="25200" probability="0.0005"/> <!-- Destra, da 0.001 -->
    <flow id="EW_wakeup_truck" type="truck" from="-E5" to="E6" begin="0" end="25200" probability="0.001"/> <!-- Dritto -->
    <flow id="EW_wakeup_delivery" type="delivery" from="-E5" to="E6" begin="0" end="25200" probability="0.001"/> <!-- Dritto -->
    <flow id="EW_wakeup_bus" type="bus" from="-E5" to="E6" begin="0" end="25200" probability="0.0005"/> <!-- Dritto -->

    <!-- Ovest-Est (Risveglio) -->
    <flow id="WE_wakeup_car" type="car" from="-E6" to="E5" begin="0" end="25200" probability="0.007"/> <!-- Dritto -->
    <flow id="WE_wakeup_car_left" type="car" from="-E6" to="E7" begin="0" end="25200" probability="0.002"/> <!-- Sinistra, da 0.003 -->
    <flow id="WE_wakeup_car_right" type="car" from="-E6" to="E8" begin="0" end="25200" probability="0.002"/> <!-- Destra, da 0.003 -->
    <flow id="WE_wakeup_moto" type="motorcycle" from="-E6" to="E5" begin="0" end="25200" probability="0.003"/> <!-- Dritto -->
    <flow id="WE_wakeup_moto_left" type="motorcycle" from="-E6" to="E7" begin="0" end="25200" probability="0.0005"/> <!-- Sinistra, da 0.001 -->
    <flow id="WE_wakeup_moto_right" type="motorcycle" from="-E6" to="E8" begin="0" end="25200" probability="0.0005"/> <!-- Destra, da 0.001 -->
    <flow id="WE_wakeup_truck" type="truck" from="-E6" to="E5" begin="0" end="25200" probability="0.001"/> <!-- Dritto -->
    <flow id="WE_wakeup_delivery" type="delivery" from="-E6" to="E5" begin="0" end="25200" probability="0.001"/> <!-- Dritto -->
    <flow id="WE_wakeup_bus" type="bus" from="-E6" to="E5" begin="0" end="25200" probability="0.0005"/> <!-- Dritto -->

    <!-- Ore di Punta Mattutina (7:00-9:00, 25200-32400 secondi) -->
    <flow id="NS_morning_car" type="car" from="-E7" to="E8" begin="25200" end="32400" probability="0.02"/> <!-- Dritto -->
    <flow id="NS_morning_car_left" type="car" from="-E7" to="E5" begin="25200" end="32400" probability="0.01"/> <!-- Sinistra -->
    <flow id="NS_morning_car_right" type="car" from="-E7" to="E6" begin="25200" end="32400" probability="0.01"/> <!-- Destra -->
    <flow id="NS_morning_moto" type="motorcycle" from="-E7" to="E8" begin="25200" end="32400" probability="0.01"/> <!-- Dritto -->
    <flow id="NS_morning_moto_left" type="motorcycle" from="-E7" to="E5" begin="25200" end="32400" probability="0.005"/> <!-- Sinistra -->
    <flow id="NS_morning_moto_right" type="motorcycle" from="-E7" to="E6" begin="25200" end="32400" probability="0.005"/> <!-- Destra -->
    <flow id="NS_morning_truck" type="truck" from="-E7" to="E8" begin="25200" end="32400" probability="0.005"/> <!-- Dritto -->
    <flow id="NS_morning_delivery" type="delivery" from="-E7" to="E8" begin="25200" end="32400" probability="0.005"/> <!-- Dritto -->
    <flow id="NS_morning_bus" type="bus" from="-E7" to="E8" begin="25200" end="32400" probability="0.003"/> <!-- Dritto -->

    <flow id="SN_morning_car" type="car" from="-E8" to="E7" begin="25200" end="32400" probability="0.02"/> <!-- Dritto -->
    <flow id="SN_morning_car_left" type="car" from="-E8" to="E6" begin="25200" end="32400" probability="0.01"/> <!-- Sinistra -->
    <flow id="SN_morning_car_right" type="car" from="-E8" to="E5" begin="25200" end="32400" probability="0.01"/> <!-- Destra -->
    <flow id="SN_morning_moto" type="motorcycle" from="-E8" to="E7" begin="25200" end="32400" probability="0.01"/> <!-- Dritto -->
    <flow id="SN_morning_moto_left" type="motorcycle" from="-E8" to="E6" begin="25200" end="32400" probability="0.005"/> <!-- Sinistra -->
    <flow id="SN_morning_moto_right" type="motorcycle" from="-E8" to="E5" begin="25200" end="32400" probability="0.005"/> <!-- Destra -->
    <flow id="SN_morning_truck" type="truck" from="-E8" to="E7" begin="25200" end="32400" probability="0.005"/> <!-- Dritto -->
    <flow id="SN_morning_delivery" type="delivery" from="-E8" to="E7" begin="25200" end="32400" probability="0.005"/> <!-- Dritto -->
    <flow id="SN_morning_bus" type="bus" from="-E8" to="E7" begin="25200" end="32400" probability="0.003"/> <!-- Dritto -->

   <flow id="EW_morning_car" type="car" from="-E5" to="E6" begin="25200" end="32400" probability="0.015"/> <!-- Dritto -->
    <flow id="EW_morning_car_left" type="car" from="-E5" to="E8" begin="25200" end="32400" probability="0.007"/> <!-- Sinistra -->
    <flow id="EW_morning_car_right" type="car" from="-E5" to="E7" begin="25200" end="32400" probability="0.007"/> <!-- Destra -->
    <flow id="EW_morning_moto" type="motorcycle" from="-E5" to="E6" begin="25200" end="32400" probability="0.007"/> <!-- Dritto -->
    <flow id="EW_morning_moto_left" type="motorcycle" from="-E5" to="E8" begin="25200" end="32400" probability="0.003"/> <!-- Sinistra -->
    <flow id="EW_morning_moto_right" type="motorcycle" from="-E5" to="E7" begin="25200" end="32400" probability="0.003"/> <!-- Destra -->
    <flow id="EW_morning_truck" type="truck" from="-E5" to="E6" begin="25200" end="32400" probability="0.003"/> <!-- Dritto -->
    <flow id="EW_morning_delivery" type="delivery" from="-E5" to="E6" begin="25200" end="32400" probability="0.003"/> <!-- Dritto -->
    <flow id="EW_morning_bus" type="bus" from="-E5" to="E6" begin="25200" end="32400" probability="0.002"/> <!-- Dritto -->

    <flow id="WE_morning_car" type="car" from="-E6" to="E5" begin="25200" end="32400" probability="0.015"/> <!-- Dritto -->
    <flow id="WE_morning_car_left" type="car" from="-E6" to="E7" begin="25200" end="32400" probability="0.007"/> <!-- Sinistra -->
    <flow id="WE_morning_car_right" type="car" from="-E6" to="E8" begin="25200" end="32400" probability="0.007"/> <!-- Destra -->
    <flow id="WE_morning_moto" type="motorcycle" from="-E6" to="E5" begin="25200" end="32400" probability="0.007"/> <!-- Dritto -->
    <flow id="WE_morning_moto_left" type="motorcycle" from="-E6" to="E7" begin="25200" end="32400" probability="0.003"/> <!-- Sinistra -->
    <flow id="WE_morning_moto_right" type="motorcycle" from="-E6" to="E8" begin="25200" end="32400" probability="0.003"/> <!-- Destra -->
    <flow id="WE_morning_truck" type="truck" from="-E6" to="E5" begin="25200" end="32400" probability="0.003"/> <!-- Dritto -->
    <flow id="WE_morning_delivery" type="delivery" from="-E6" to="E5" begin="25200" end="32400" probability="0.003"/> <!-- Dritto -->
    <flow id="WE_morning_bus" type="bus" from="-E6" to="E5" begin="25200" end="32400" probability="0.002"/> <!-- Dritto -->

    <!-- Ore di Punta Pomeridiana (9:00-13:00, 32400-46800 secondi) -->
    <!-- Ore di Punta Pomeridiana (9:00-13:00, 32400-46800 secondi) -->
    <flow id="NS_afternoon_car" type="car" from="-E7" to="E8" begin="32400" end="46800" probability="0.015"/> <!-- Dritto -->
    <flow id="NS_afternoon_car_left" type="car" from="-E7" to="E5" begin="32400" end="46800" probability="0.007"/> <!-- Sinistra -->
    <flow id="NS_afternoon_car_right" type="car" from="-E7" to="E6" begin="32400" end="46800" probability="0.007"/> <!-- Destra -->
    <flow id="NS_afternoon_moto" type="motorcycle" from="-E7" to="E8" begin="32400" end="46800" probability="0.007"/> <!-- Dritto -->
    <flow id="NS_afternoon_moto_left" type="motorcycle" from="-E7" to="E5" begin="32400" end="46800" probability="0.003"/> <!-- Sinistra -->
    <flow id="NS_afternoon_moto_right" type="motorcycle" from="-E7" to="E6" begin="32400" end="46800" probability="0.003"/> <!-- Destra -->
    <flow id="NS_afternoon_truck" type="truck" from="-E7" to="E8" begin="32400" end="46800" probability="0.003"/> <!-- Dritto -->
    <flow id="NS_afternoon_delivery" type="delivery" from="-E7" to="E8" begin="32400" end="46800" probability="0.003"/> <!-- Dritto -->
    <flow id="NS_afternoon_bus" type="bus" from="-E7" to="E8" begin="32400" end="46800" probability="0.002"/> <!-- Dritto -->

    <flow id="SN_afternoon_car" type="car" from="-E8" to="E7" begin="32400" end="46800" probability="0.015"/> <!-- Dritto -->
    <flow id="SN_afternoon_car_left" type="car" from="-E8" to="E6" begin="32400" end="46800" probability="0.007"/> <!-- Sinistra -->
    <flow id="SN_afternoon_car_right" type="car" from="-E8" to="E5" begin="32400" end="46800" probability="0.007"/> <!-- Destra -->
    <flow id="SN_afternoon_moto" type="motorcycle" from="-E8" to="E7" begin="32400" end="46800" probability="0.007"/> <!-- Dritto -->
    <flow id="SN_afternoon_moto_left" type="motorcycle" from="-E8" to="E6" begin="32400" end="46800" probability="0.003"/> <!-- Sinistra -->
    <flow id="SN_afternoon_moto_right" type="motorcycle" from="-E8" to="E5" begin="32400" end="46800" probability="0.003"/> <!-- Destra -->
    <flow id="SN_afternoon_truck" type="truck" from="-E8" to="E7" begin="32400" end="46800" probability="0.003"/> <!-- Dritto -->
    <flow id="SN_afternoon_delivery" type="delivery" from="-E8" to="E7" begin="32400" end="46800" probability="0.003"/> <!-- Dritto -->
    <flow id="SN_afternoon_bus" type="bus" from="-E8" to="E7" begin="32400" end="46800" probability="0.002"/> <!-- Dritto -->

    <flow id="EW_afternoon_car" type="car" from="-E5" to="E6" begin="32400" end="46800" probability="0.01"/> <!-- Dritto -->
    <flow id="EW_afternoon_car_left" type="car" from="-E5" to="E8" begin="32400" end="46800" probability="0.005"/> <!-- Sinistra -->
    <flow id="EW_afternoon_car_right" type="car" from="-E5" to="E7" begin="32400" end="46800" probability="0.005"/> <!-- Destra -->
    <flow id="EW_afternoon_moto" type="motorcycle" from="-E5" to="E6" begin="32400" end="46800" probability="0.005"/> <!-- Dritto -->
    <flow id="EW_afternoon_moto_left" type="motorcycle" from="-E5" to="E8" begin="32400" end="46800" probability="0.002"/> <!-- Sinistra -->
    <flow id="EW_afternoon_moto_right" type="motorcycle" from="-E5" to="E7" begin="32400" end="46800" probability="0.002"/> <!-- Destra -->
    <flow id="EW_afternoon_truck" type="truck" from="-E5" to="E6" begin="32400" end="46800" probability="0.002"/> <!-- Dritto -->
    <flow id="EW_afternoon_delivery" type="delivery" from="-E5" to="E6" begin="32400" end="46800" probability="0.002"/> <!-- Dritto -->
    <flow id="EW_afternoon_bus" type="bus" from="-E5" to="E6" begin="32400" end="46800" probability="0.001"/> <!-- Dritto -->

    <flow id="WE_afternoon_car" type="car" from="-E6" to="E5" begin="32400" end="46800" probability="0.01"/> <!-- Dritto -->
    <flow id="WE_afternoon_car_left" type="car" from="-E6" to="E7" begin="32400" end="46800" probability="0.005"/> <!-- Sinistra -->
    <flow id="WE_afternoon_car_right" type="car" from="-E6" to="E8" begin="32400" end="46800" probability="0.005"/> <!-- Destra -->
    <flow id="WE_afternoon_moto" type="motorcycle" from="-E6" to="E5" begin="32400" end="46800" probability="0.005"/> <!-- Dritto -->
    <flow id="WE_afternoon_moto_left" type="motorcycle" from="-E6" to="E7" begin="32400" end="46800" probability="0.002"/> <!-- Sinistra -->
    <flow id="WE_afternoon_moto_right" type="motorcycle" from="-E6" to="E8" begin="32400" end="46800" probability="0.002"/> <!-- Destra -->
    <flow id="WE_afternoon_truck" type="truck" from="-E6" to="E5" begin="32400" end="46800" probability="0.002"/> <!-- Dritto -->
    <flow id="WE_afternoon_delivery" type="delivery" from="-E6" to="E5" begin="32400" end="46800" probability="0.002"/> <!-- Dritto -->
    <flow id="WE_afternoon_bus" type="bus" from="-E6" to="E5" begin="32400" end="46800" probability="0.001"/> <!-- Dritto -->

    <!-- Fuori Punta (13:00-17:00, 46800-61200 secondi) -->
    <flow id="NS_offpeak_car" type="car" from="-E7" to="E8" begin="46800" end="61200" probability="0.01"/> <!-- Dritto -->
    <flow id="NS_offpeak_car_left" type="car" from="-E7" to="E5" begin="46800" end="61200" probability="0.005"/> <!-- Sinistra -->
    <flow id="NS_offpeak_car_right" type="car" from="-E7" to="E6" begin="46800" end="61200" probability="0.005"/> <!-- Destra -->
    <flow id="NS_offpeak_moto" type="motorcycle" from="-E7" to="E8" begin="46800" end="61200" probability="0.005"/> <!-- Dritto -->
    <flow id="NS_offpeak_moto_left" type="motorcycle" from="-E7" to="E5" begin="46800" end="61200" probability="0.002"/> <!-- Sinistra -->
    <flow id="NS_offpeak_moto_right" type="motorcycle" from="-E7" to="E6" begin="46800" end="61200" probability="0.002"/> <!-- Destra -->
    <flow id="NS_offpeak_truck" type="truck" from="-E7" to="E8" begin="46800" end="61200" probability="0.002"/> <!-- Dritto -->
    <flow id="NS_offpeak_delivery" type="delivery" from="-E7" to="E8" begin="46800" end="61200" probability="0.002"/> <!-- Dritto -->
    <flow id="NS_offpeak_bus" type="bus" from="-E7" to="E8" begin="46800" end="61200" probability="0.001"/> <!-- Dritto -->

    <flow id="SN_offpeak_car" type="car" from="-E8" to="E7" begin="46800" end="61200" probability="0.01"/> <!-- Dritto -->
    <flow id="SN_offpeak_car_left" type="car" from="-E8" to="E6" begin="46800" end="61200" probability="0.005"/> <!-- Sinistra -->
    <flow id="SN_offpeak_car_right" type="car" from="-E8" to="E5" begin="46800" end="61200" probability="0.005"/> <!-- Destra -->
    <flow id="SN_offpeak_moto" type="motorcycle" from="-E8" to="E7" begin="46800" end="61200" probability="0.005"/> <!-- Dritto -->
    <flow id="SN_offpeak_moto_left" type="motorcycle" from="-E8" to="E6" begin="46800" end="61200" probability="0.002"/> <!-- Sinistra -->
    <flow id="SN_offpeak_moto_right" type="motorcycle" from="-E8" to="E5" begin="46800" end="61200" probability="0.002"/> <!-- Destra -->
    <flow id="SN_offpeak_truck" type="truck" from="-E8" to="E7" begin="46800" end="61200" probability="0.002"/> <!-- Dritto -->
    <flow id="SN_offpeak_delivery" type="delivery" from="-E8" to="E7" begin="46800" end="61200" probability="0.003"/> <!-- Dritto -->
    <flow id="SN_offpeak_bus" type="bus" from="-E8" to="E7" begin="46800" end="61200" probability="0.001"/> <!-- Dritto -->

    <flow id="EW_offpeak_car" type="car" from="-E5" to="E6" begin="46800" end="61200" probability="0.0070"/> <!-- Dritto -->
    <flow id="EW_offpeak_car_left" type="car" from="-E5" to="E8" begin="46800" end="61200" probability="0.003"/> <!-- Sinistra -->
    <flow id="EW_offpeak_car_right" type="car" from="-E5" to="E7" begin="46800" end="61200" probability="0.003"/> <!-- Destra -->
    <flow id="EW_offpeak_moto" type="motorcycle" from="-E5" to="E6" begin="46800" end="61200" probability="0.003"/> <!-- Dritto -->
    <flow id="EW_offpeak_moto_left" type="motorcycle" from="-E5" to="E8" begin="46800" end="61200" probability="0.001"/> <!-- Sinistra -->
    <flow id="EW_offpeak_moto_right" type="motorcycle" from="-E5" to="E7" begin="46800" end="61200" probability="0.001"/> <!-- Destra -->
    <flow id="EW_offpeak_truck" type="truck" from="-E5" to="E6" begin="46800" end="61200" probability="0.002"/> <!-- Dritto -->
    <flow id="EW_offpeak_delivery" type="delivery" from="-E5" to="E6" begin="46800" end="61200" probability="0.002"/> <!-- Dritto -->
    <flow id="EW_offpeak_bus" type="bus" from="-E5" to="E6" begin="46800" end="61200" probability="0.001"/> <!-- Dritto -->

    <flow id="WE_offpeak_car" type="car" from="-E6" to="E5" begin="46800" end="61200" probability="0.007"/> <!-- Dritto -->
    <flow id="WE_offpeak_car_left" type="car" from="-E6" to="E7" begin="46800" end="61200" probability="0.003"/> <!-- Sinistra -->
    <flow id="WE_offpeak_car_right" type="car" from="-E6" to="E8" begin="46800" end="61200" probability="0.003"/> <!-- Destra -->
    <flow id="WE_offpeak_moto" type="motorcycle" from="-E6" to="E5" begin="46800" end="61200" probability="0.003"/> <!-- Dritto -->
    <flow id="WE_offpeak_moto_left" type="motorcycle" from="-E6" to="E7" begin="46800" end="61200" probability="0.001"/> <!-- Sinistra -->
    <flow id="WE_offpeak_moto_right" type="motorcycle" from="-E6" to="E8" begin="46800" end="61200" probability="0.001"/> <!-- Destra -->
    <flow id="WE_offpeak_truck" type="truck" from="-E6" to="E5" begin="46800" end="61200" probability="0.002"/> <!-- Dritto -->
    <flow id="WE_offpeak_delivery" type="delivery" from="-E6" to="E5" begin="46800" end="61200" probability="0.002"/> <!-- Dritto -->
    <flow id="WE_offpeak_bus" type="bus" from="-E6" to="E5" begin="46800" end="61200" probability="0.001"/> <!-- Dritto -->

    <!-- Notte (17:00-0:00, 61200-86400 secondi) -->
    <flow id="NS_night_car" type="car" from="-E7" to="E8" begin="61200" end="86400" probability="0.005"/> <!-- Dritto -->
    <flow id="NS_night_car_left" type="car" from="-E7" to="E5" begin="61200" end="86400" probability="0.002"/> <!-- Sinistra -->
    <flow id="NS_night_car_right" type="car" from="-E7" to="E6" begin="61200" end="86400" probability="0.002"/> <!-- Destra -->
    <flow id="NS_night_moto" type="motorcycle" from="-E7" to="E8" begin="61200" end="86400" probability="0.002"/> <!-- Dritto -->
    <flow id="NS_night_moto_left" type="motorcycle" from="-E7" to="E5" begin="61200" end="86400" probability="0.001"/> <!-- Sinistra -->
    <flow id="NS_night_moto_right" type="motorcycle" from="-E7" to="E6" begin="61200" end="86400" probability="0.001"/> <!-- Destra -->
    <flow id="NS_night_truck" type="truck" from="-E7" to="E8" begin="61200" end="86400" probability="0.001"/> <!-- Dritto -->
    <flow id="NS_night_delivery" type="delivery" from="-E7" to="E8" begin="61200" end="86400" probability="0.002"/> <!-- Dritto -->
    <flow id="NS_night_bus" type="bus" from="-E7" to="E8" begin="61200" end="86400" probability="0.0005"/> <!-- Dritto -->

    <flow id="SN_night_car" type="car" from="-E8" to="E7" begin="61200" end="86400" probability="0.005"/> <!-- Dritto -->
    <flow id="SN_night_car_left" type="car" from="-E8" to="E6" begin="61200" end="86400" probability="0.002"/> <!-- Sinistra -->
    <flow id="SN_night_car_right" type="car" from="-E8" to="E5" begin="61200" end="86400" probability="0.002"/> <!-- Destra -->
    <flow id="SN_night_moto" type="motorcycle" from="-E8" to="E7" begin="61200" end="86400" probability="0.002"/> <!-- Dritto -->
    <flow id="SN_night_moto_left" type="motorcycle" from="-E8" to="E6" begin="61200" end="86400" probability="0.001"/> <!-- Sinistra -->
    <flow id="SN_night_moto_right" type="motorcycle" from="-E8" to="E5" begin="61200" end="86400" probability="0.001"/> <!-- Destra -->
    <flow id="SN_night_truck" type="truck" from="-E8" to="E7" begin="61200" end="86400" probability="0.001"/> <!-- Dritto -->
    <flow id="SN_night_delivery" type="delivery" from="-E8" to="E7" begin="61200" end="86400" probability="0.002"/> <!-- Dritto -->
    <flow id="SN_night_bus" type="bus" from="-E8" to="E7" begin="61200" end="86400" probability="0.0005"/> <!-- Dritto -->

    <flow id="EW_night_car" type="car" from="-E5" to="E6" begin="61200" end="86400" probability="0.003"/> <!-- Dritto -->
    <flow id="EW_night_car_left" type="car" from="-E5" to="E8" begin="61200" end="86400" probability="0.001"/> <!-- Sinistra -->
    <flow id="EW_night_car_right" type="car" from="-E5" to="E7" begin="61200" end="86400" probability="0.001"/> <!-- Destra -->
    <flow id="EW_night_moto" type="motorcycle" from="-E5" to="E6" begin="61200" end="86400" probability="0.001"/> <!-- Dritto -->
    <flow id="EW_night_moto_left" type="motorcycle" from="-E5" to="E8" begin="61200" end="86400" probability="0.0005"/> <!-- Sinistra -->
    <flow id="EW_night_moto_right" type="motorcycle" from="-E5" to="E7" begin="61200" end="86400" probability="0.0005"/> <!-- Destra -->
    <flow id="EW_night_truck" type="truck" from="-E5" to="E6" begin="61200" end="86400" probability="0.001"/> <!-- Dritto -->
    <flow id="EW_night_delivery" type="delivery" from="-E5" to="E6" begin="61200" end="86400" probability="0.001"/> <!-- Dritto -->
    <flow id="EW_night_bus" type="bus" from="-E5" to="E6" begin="61200" end="86400" probability="0.0005"/> <!-- Dritto -->

    <flow id="WE_night_car" type="car" from="-E6" to="E5" begin="61200" end="86400" probability="0.003"/> <!-- Dritto -->
    <flow id="WE_night_car_left" type="car" from="-E6" to="E7" begin="61200" end="86400" probability="0.001"/> <!-- Sinistra -->
    <flow id="WE_night_car_right" type="car" from="-E6" to="E8" begin="61200" end="86400" probability="0.001"/> <!-- Destra -->
    <flow id="WE_night_moto" type="motorcycle" from="-E6" to="E5" begin="61200" end="86400" probability="0.001"/> <!-- Dritto -->
    <flow id="WE_night_moto_left" type="motorcycle" from="-E6" to="E7" begin="61200" end="86400" probability="0.0005"/> <!-- Sinistra -->
    <flow id="WE_night_moto_right" type="motorcycle" from="-E6" to="E8" begin="61200" end="86400" probability="0.0005"/> <!-- Destra -->
    <flow id="WE_night_truck" type="truck" from="-E6" to="E5" begin="61200" end="86400" probability="0.001"/> <!-- Dritto -->
    <flow id="WE_night_delivery" type="delivery" from="-E6" to="E5" begin="61200" end="86400" probability="0.001"/> <!-- Dritto -->
    <flow id="WE_night_bus" type="bus" from="-E6" to="E5" begin="61200" end="86400" probability="0.0005"/> <!-- Dritto -->
</routes>